[TITLE]
HYDRA

[JUNCTIONS]
;ID              	Elev        	Demand      	Pattern         
 MN1             	108.325533  	0.          	                	;
 PN4             	109.888681  	0.          	                	;
 MN13            	109.952257  	0.          	                	;
 MN25            	110.034324  	0.          	                	;
 MN38            	110.296164  	0.          	                	;
 PN8             	109.854921  	0.          	                	;
 MN57            	109.10746   	0.          	                	;
 PN13            	110.130745  	0.          	                	;
 MN71            	110.360755  	0.          	                	;
 MN74            	111.242183  	0.          	                	;
 PN63            	111.595145  	0.          	                	;
 MN84            	110.861292  	0.          	                	;
 MN88            	107.999275  	0.          	                	;
 PN32            	111.557877  	0.          	                	;
 PN44            	111.775276  	0.          	                	;
 PN113           	113.707491  	0.          	                	;
 PN56            	110.255794  	0.          	                	;
 PN88            	112.43109   	0.          	                	;
 PN66            	108.896629  	0.          	                	;
 PN73            	108.127823  	0.          	                	;
 PN82            	107.84436   	0.          	                	;
 MN120           	110.025     	0.          	                	;
 MN125           	110.257083  	0.          	                	;
 PN45            	114.03502   	0.          	                	;
 MN131           	112.606645  	0.          	                	;
 MN142           	115.108486  	0.          	                	;
 MN147           	114.9053    	0.          	                	;
 MN157           	114.546376  	0.          	                	;
 MN167           	114.009922  	0.          	                	;
 MN178           	113.827036  	0.          	                	;
 2MN1            	108.325533  	0.          	                	;
 2PN4            	109.888681  	0.          	                	;
 2MN13           	109.952257  	0.          	                	;
 2MN25           	110.034324  	0.          	                	;
 2MN38           	110.296164  	0.          	                	;
 2PN8            	109.854921  	0.          	                	;
 2MN57           	109.10746   	0.          	                	;
 2PN13           	110.130745  	0.          	                	;
 2MN71           	110.360755  	0.          	                	;
 2MN74           	111.242183  	0.          	                	;
 2PN63           	111.595145  	0.          	                	;
 2MN84           	110.861292  	0.          	                	;
 2MN88           	107.999275  	0.          	                	;
 2PN32           	111.557877  	0.          	                	;
 2PN44           	111.775276  	0.          	                	;
 2PN113          	113.707491  	0.          	                	;
 2PN56           	110.255794  	0.          	                	;
 2PN88           	112.43109   	0.          	                	;
 2PN66           	108.896629  	0.          	                	;
 2PN73           	108.127823  	0.          	                	;
 2PN82           	107.84436   	0.          	                	;
 2MN120          	110.025     	0.          	                	;
 2MN125          	110.257083  	0.          	                	;
 2PN45           	114.03502   	0.          	                	;
 2MN131          	112.606645  	0.          	                	;
 2MN142          	115.108486  	0.          	                	;
 2MN147          	114.9053    	0.          	                	;
 2MN157          	114.546376  	0.          	                	;
 2MN167          	114.009922  	0.          	                	;
 2MN178          	113.827036  	0.          	                	;
 3MN1            	94.13957    	0.          	                	;
 3MN3            	94.773768   	0.          	                	;
 3MN5            	95.621206   	0.          	                	;
 3MN8            	94.616632   	0.          	                	;
 3MN14           	94.713415   	0.          	                	;
 3MN18           	93.869034   	0.          	                	;
 3MN27           	93.664991   	0.          	                	;
 3MN36           	93.461229   	0.          	                	;
 3PN4            	93.460734   	0.          	                	;
 3MN42           	96.403905   	0.          	                	;
 3MN46           	96.520129   	0.          	                	;
 3MN57           	96.143131   	0.          	                	;
 3MN66           	95.393907   	0.          	                	;
 3MN72           	92.989617   	0.          	                	;
 3MN77           	94.414272   	0.          	                	;
 3MN84           	95.633032   	0.          	                	;
 3MN91           	96.203967   	0.          	                	;
 3MN98           	97.29694    	0.          	                	;
 3MN102          	96.066465   	0.          	                	;
 3MN107          	95.840459   	0.          	                	;
 3MN120          	95.617216   	0.          	                	;
 3PN10           	95.34281    	0.          	                	;
 3PN12           	94.916223   	0.          	                	;
 3MN129          	95.071784   	0.          	                	;
 3MN133          	95.3309     	0.          	                	;
 3MN136          	96.170389   	0.          	                	;
 3MN139          	96.588992   	0.          	                	;
 3MN145          	93.018543   	0.          	                	;
 3MN146          	91.71492    	0.          	                	;
 3MN148          	91.916292   	0.          	                	;
 3MN156          	95.38937    	0.          	                	;
 3MN165          	93.746729   	0.          	                	;
 3MN171          	95.467493   	0.          	                	;
 3MN176          	95.045561   	0.          	                	;
 3MN182          	93.394296   	0.          	                	;
 3MN189          	93.183681   	0.          	                	;
 3MN194          	95.262701   	0.          	                	;
 3MN196          	93.319768   	0.          	                	;
 3PN18           	95.449617   	0.          	                	;
 3MN202          	95.67792    	0.          	                	;
 3MN208          	92.906392   	0.          	                	;
 3MN217          	96.901543   	0.          	                	;
 3MN228          	97.327505   	0.          	                	;
 3MN234          	97.967305   	0.          	                	;
 3PN19           	95.755128   	0.          	                	;
 3MN243          	96.397555   	0.          	                	;
 3MN249          	96.60457    	0.          	                	;
 3MN265          	96.829506   	0.          	                	;
 3MN273          	97.032863   	0.          	                	;
 3MN278          	97.340535   	0.          	                	;
 3MN286          	99.659445   	0.          	                	;
 3MN303          	100.986911  	0.          	                	;
 3PN26           	98.894012   	0.          	                	;
 3PN25           	97.69097    	0.          	                	;
 3MN314          	97.86461    	0.          	                	;
 3MN318          	98.476721   	0.          	                	;
 3MN322          	99.05999    	0.          	                	;
 3MN324          	99.29483    	0.          	                	;
 3MN330          	101.929202  	0.          	                	;
 3PN23           	103.833211  	0.          	                	;
 3PN36           	100.289466  	0.          	                	;
 3PN38           	99.999597   	0.          	                	;
 3MN338          	98.727328   	0.          	                	;
 3MN339          	100.054894  	0.          	                	;
 3MN348          	101.074734  	0.          	                	;
 3PN47           	98.874183   	0.          	                	;
 3MN358          	99.883985   	0.          	                	;
 3MN366          	100.474354  	0.          	                	;
 3MN372          	101.532652  	0.          	                	;
 3MN375          	101.735534  	0.          	                	;
 3PN49           	101.98979   	0.          	                	;
 3MN382          	102.828766  	0.          	                	;
 3PN48           	105.144129  	0.          	                	;
 3MN763          	104.270602  	0.          	                	;
 3MN758          	104.262081  	0.          	                	;
 3MN755          	104.256382  	0.          	                	;
 3MN753          	104.249818  	0.          	                	;
 3MN744          	104.244635  	0.          	                	;
 3MN742          	104.237814  	0.          	                	;
 3MN734          	104.232258  	0.          	                	;
 3MN728          	104.226436  	0.          	                	;
 3MN724          	104.218734  	0.          	                	;
 3MN718          	104.213341  	0.          	                	;
 3MN717          	104.207702  	0.          	                	;
 3MN715          	104.202529  	0.          	                	;
 3MN714          	104.196158  	0.          	                	;
 3MN710          	104.191084  	0.          	                	;
 3MN703          	104.185587  	0.          	                	;
 3MN701          	104.177969  	0.          	                	;
 3MN695          	104.170685  	0.          	                	;
 3MN692          	104.164718  	0.          	                	;
 3MN689          	104.158708  	0.          	                	;
 3MN688          	104.141959  	0.          	                	;
 3MN686          	104.13439   	0.          	                	;
 3MN682          	104.121445  	0.          	                	;
 3MN671          	104.111963  	0.          	                	;
 3MN669          	104.106665  	0.          	                	;
 3MN665          	104.100699  	0.          	                	;
 3MN664          	104.094912  	0.          	                	;
 3MN656          	104.089444  	0.          	                	;
 3MN647          	104.084124  	0.          	                	;
 3MN641          	104.078272  	0.          	                	;
 3MN639          	104.073304  	0.          	                	;
 3MN484          	104.068209  	0.          	                	;
 3PN79           	108.237675  	0.          	                	;
 3MN499          	108.454431  	0.          	                	;
 3MN509          	109.083828  	0.          	                	;
 3MN515          	110.441188  	0.          	                	;
 3MN539          	108.4078    	0.          	                	;
 3MN550          	109.581994  	0.          	                	;
 3MN558          	107.072713  	0.          	                	;
 3MN560          	106.246357  	0.          	                	;
 3MN568          	112.393875  	0.          	                	;
 3MN577          	111.058949  	0.          	                	;
 3MN587          	107.792299  	0.          	                	;
 3PN91           	107.892718  	0.          	                	;
 3PN93           	108.163354  	0.          	                	;
 3PN95           	111.960999  	0.          	                	;
 3PN101          	109.820588  	0.          	                	;
 3MN605          	110.208365  	0.          	                	;
 3MN609          	110.527599  	0.          	                	;
 3MN610          	109.249766  	0.          	                	;
 3MN611          	108.438657  	0.          	                	;
 3PN103          	108.210672  	0.          	                	;
 3MN614          	108.203109  	0.          	                	;
 3MN616          	109.697848  	0.          	                	;
 3MN625          	109.591858  	0.          	                	;
 3PN108          	109.372214  	0.          	                	;
 3MN635          	112.136775  	0.          	                	;
 3MN636          	112.093937  	0.          	                	;
 4MN1            	94.13957    	0.          	                	;
 4MN3            	94.773768   	0.          	                	;
 4MN5            	95.621206   	0.          	                	;
 4MN8            	94.616632   	0.          	                	;
 4MN14           	94.713415   	0.          	                	;
 4MN18           	93.869034   	0.          	                	;
 4MN27           	93.664991   	0.          	                	;
 4MN36           	93.461229   	0.          	                	;
 4PN4            	93.460734   	0.          	                	;
 4MN42           	96.403905   	0.          	                	;
 4MN46           	96.520129   	0.          	                	;
 4MN57           	96.143131   	0.          	                	;
 4MN66           	95.393907   	0.          	                	;
 4MN72           	92.989617   	0.          	                	;
 4MN77           	94.414272   	0.          	                	;
 4MN84           	95.633032   	0.          	                	;
 4MN91           	96.203967   	0.          	                	;
 4MN98           	97.29694    	0.          	                	;
 4MN102          	96.066465   	0.          	                	;
 4MN107          	95.840459   	0.          	                	;
 4MN120          	95.617216   	0.          	                	;
 4PN10           	95.34281    	0.          	                	;
 4PN12           	94.916223   	0.          	                	;
 4MN129          	95.071784   	0.          	                	;
 4MN133          	95.3309     	0.          	                	;
 4MN136          	96.170389   	0.          	                	;
 4MN139          	96.588992   	0.          	                	;
 4MN145          	93.018543   	0.          	                	;
 4MN146          	91.71492    	0.          	                	;
 4MN148          	91.916292   	0.          	                	;
 4MN156          	95.38937    	0.          	                	;
 4MN165          	93.746729   	0.          	                	;
 4MN171          	95.467493   	0.          	                	;
 4MN176          	95.045561   	0.          	                	;
 4MN182          	93.394296   	0.          	                	;
 4MN189          	93.183681   	0.          	                	;
 4MN194          	95.262701   	0.          	                	;
 4MN196          	93.319768   	0.          	                	;
 4PN18           	95.449617   	0.          	                	;
 4MN202          	95.67792    	0.          	                	;
 4MN208          	92.906392   	0.          	                	;
 4MN217          	96.901543   	0.          	                	;
 4MN228          	97.327505   	0.          	                	;
 4MN234          	97.967305   	0.          	                	;
 4PN19           	95.755128   	0.          	                	;
 4MN243          	96.397555   	0.          	                	;
 4MN249          	96.60457    	0.          	                	;
 4MN265          	96.829506   	0.          	                	;
 4MN273          	97.032863   	0.          	                	;
 4MN278          	97.340535   	0.          	                	;
 4MN286          	99.659445   	0.          	                	;
 4MN303          	100.986911  	0.          	                	;
 4PN26           	98.894012   	0.          	                	;
 4PN25           	97.69097    	0.          	                	;
 4MN314          	97.86461    	0.          	                	;
 4MN318          	98.476721   	0.          	                	;
 4MN322          	99.05999    	0.          	                	;
 4MN324          	99.29483    	0.          	                	;
 4MN330          	101.929202  	0.          	                	;
 4PN23           	103.833211  	0.          	                	;
 4PN36           	100.289466  	0.          	                	;
 4PN38           	99.999597   	0.          	                	;
 4MN338          	98.727328   	0.          	                	;
 4MN339          	100.054894  	0.          	                	;
 4MN348          	101.074734  	0.          	                	;
 4PN47           	98.874183   	0.          	                	;
 4MN358          	99.883985   	0.          	                	;
 4MN366          	100.474354  	0.          	                	;
 4MN372          	101.532652  	0.          	                	;
 4MN375          	101.735534  	0.          	                	;
 4PN49           	101.98979   	0.          	                	;
 4MN382          	102.828766  	0.          	                	;
 4PN48           	105.144129  	0.          	                	;
 4MN763          	104.270602  	0.          	                	;
 4MN758          	104.262081  	0.          	                	;
 4MN755          	104.256382  	0.          	                	;
 4MN753          	104.249818  	0.          	                	;
 4MN744          	104.244635  	0.          	                	;
 4MN742          	104.237814  	0.          	                	;
 4MN734          	104.232258  	0.          	                	;
 4MN728          	104.226436  	0.          	                	;
 4MN724          	104.218734  	0.          	                	;
 4MN718          	104.213341  	0.          	                	;
 4MN717          	104.207702  	0.          	                	;
 4MN715          	104.202529  	0.          	                	;
 4MN714          	104.196158  	0.          	                	;
 4MN710          	104.191084  	0.          	                	;
 4MN703          	104.185587  	0.          	                	;
 4MN701          	104.177969  	0.          	                	;
 4MN695          	104.170685  	0.          	                	;
 4MN692          	104.164718  	0.          	                	;
 4MN689          	104.158708  	0.          	                	;
 4MN688          	104.141959  	0.          	                	;
 4MN686          	104.13439   	0.          	                	;
 4MN682          	104.121445  	0.          	                	;
 4MN671          	104.111963  	0.          	                	;
 4MN669          	104.106665  	0.          	                	;
 4MN665          	104.100699  	0.          	                	;
 4MN664          	104.094912  	0.          	                	;
 4MN656          	104.089444  	0.          	                	;
 4MN647          	104.084124  	0.          	                	;
 4MN641          	104.078272  	0.          	                	;
 4MN639          	104.073304  	0.          	                	;
 4MN484          	104.068209  	0.          	                	;
 4PN79           	108.237675  	0.          	                	;
 4MN499          	108.454431  	0.          	                	;
 4MN509          	109.083828  	0.          	                	;
 4MN515          	110.441188  	0.          	                	;
 4MN539          	108.4078    	0.          	                	;
 4MN550          	109.581994  	0.          	                	;
 4MN558          	107.072713  	0.          	                	;
 4MN560          	106.246357  	0.          	                	;
 4MN568          	112.393875  	0.          	                	;
 4MN577          	111.058949  	0.          	                	;
 4MN587          	107.792299  	0.          	                	;
 4PN91           	107.892718  	0.          	                	;
 4PN93           	108.163354  	0.          	                	;
 4PN95           	111.960999  	0.          	                	;
 4PN101          	109.820588  	0.          	                	;
 4MN605          	110.208365  	0.          	                	;
 4MN609          	110.527599  	0.          	                	;
 4MN610          	109.249766  	0.          	                	;
 4MN611          	108.438657  	0.          	                	;
 4PN103          	108.210672  	0.          	                	;
 4MN614          	108.203109  	0.          	                	;
 4MN616          	109.697848  	0.          	                	;
 4MN625          	109.591858  	0.          	                	;
 4PN108          	109.372214  	0.          	                	;
 4MN635          	112.136775  	0.          	                	;
 4MN636          	112.093937  	0.          	                	;
 6               	93          	0           	                	;
 7               	93          	0           	                	;
 elag            	93          	0           	                	;
 kozos3          	94          	0           	                	;
 n_sziv3         	94          	0           	                	;
 n_sziv2         	94          	0           	                	;
 n_sziv1         	94          	0           	                	;
 kozos2          	94          	0           	                	;
 kozos1          	94          	0           	                	;

[RESERVOIRS]
;ID              	Head        	Pattern         
 tarozo1         	94.8        	                	;
 tarozo2_1       	115.1       	                	;
 tarozo2_2       	115.1       	                	;

[TANKS]
;ID              	Elevation   	InitLevel   	MinLevel    	MaxLevel    	Diameter    	MinVol      	VolCurve        	Overflow

[PIPES]
;ID              	Node1           	Node2           	Length      	Diameter    	Roughness   	MinorLoss   	Status
 S1              	MN1             	PN4             	261.990048  	503.8       	150         	0.          	Open  	;
 S118            	PN4             	MN13            	231.20860199999998	503.8       	150         	0.          	Open  	;
 S13             	MN13            	MN25            	204.46601600000002	503.8       	150         	0.          	Open  	;
 S25             	MN25            	MN38            	237.831267  	503.8       	150         	0.          	Open  	;
 S38             	MN38            	PN8             	237.76133299999998	503.8       	150         	0.          	Open  	;
 S122            	PN8             	MN57            	328.144502  	503.8       	150         	0.          	Open  	;
 S57             	MN57            	PN13            	215.423339  	503.8       	150         	0.          	Open  	;
 S127            	PN13            	MN71            	230.009711  	503.8       	150         	0.          	Open  	;
 S71             	MN71            	MN74            	257.700727  	503.8       	150         	0.          	Open  	;
 S74             	MN74            	PN63            	203.18167599999998	503.8       	150         	0.          	Open  	;
 S195            	PN63            	MN84            	205.43650200000002	503.8       	150         	0.          	Open  	;
 S84             	MN84            	MN88            	200.80252499999997	503.8       	150         	0.          	Open  	;
 S88             	MN88            	PN32            	219.555634  	503.8       	150         	0.          	Open  	;
 S164            	PN32            	PN44            	217.441648  	503.8       	150         	0.          	Open  	;
 S176            	PN44            	PN113           	200.85026200000001	503.8       	150         	0.          	Open  	;
 S287            	PN113           	PN56            	276.601865  	503.8       	150         	0.          	Open  	;
 S188            	PN56            	PN88            	202.465852  	503.8       	150         	0.          	Open  	;
 S262            	PN88            	PN66            	210.112137  	503.8       	150         	0.          	Open  	;
 S240            	PN66            	PN73            	219.402945  	503.8       	150         	0.          	Open  	;
 S247            	PN73            	PN82            	201.97431300000002	503.8       	150         	0.          	Open  	;
 S256            	PN82            	MN120           	205.19374500000004	503.8       	150         	0.          	Open  	;
 S139            	MN120           	MN125           	232.082724  	503.8       	150         	0.          	Open  	;
 S144            	MN125           	PN45            	231.50692399999997	503.8       	150         	0.          	Open  	;
 S177            	PN45            	MN131           	281.394158  	503.8       	150         	0.          	Open  	;
 S150            	MN131           	MN142           	263.51696499999997	503.8       	150         	0.          	Open  	;
 S204            	MN142           	MN147           	203.185313  	503.8       	150         	0.          	Open  	;
 S209            	MN147           	MN157           	358.924467  	503.8       	150         	0.          	Open  	;
 S219            	MN157           	MN167           	230.66933999999998	503.8       	150         	0.          	Open  	;
 S229            	MN167           	MN178           	182.88519800000003	503.8       	150         	0.          	Open  	;
 2S1             	2MN1            	2PN4            	261.990048  	547.4       	150         	0.          	Open  	;
 2S118           	2PN4            	2MN13           	231.20860199999998	547.4       	150         	0.          	Open  	;
 2S13            	2MN13           	2MN25           	204.46601600000002	547.4       	150         	0.          	Open  	;
 2S25            	2MN25           	2MN38           	237.831267  	547.4       	150         	0.          	Open  	;
 2S38            	2MN38           	2PN8            	237.76133299999998	547.4       	150         	0.          	Open  	;
 2S122           	2PN8            	2MN57           	328.144502  	547.4       	150         	0.          	Open  	;
 2S57            	2MN57           	2PN13           	215.423339  	547.4       	150         	0.          	Open  	;
 2S127           	2PN13           	2MN71           	230.009711  	547.4       	150         	0.          	Open  	;
 2S71            	2MN71           	2MN74           	257.700727  	547.4       	150         	0.          	Open  	;
 2S74            	2MN74           	2PN63           	203.18167599999998	547.4       	150         	0.          	Open  	;
 2S195           	2PN63           	2MN84           	205.43650200000002	547.4       	150         	0.          	Open  	;
 2S84            	2MN84           	2MN88           	200.80252499999997	547.4       	150         	0.          	Open  	;
 2S88            	2MN88           	2PN32           	219.555634  	547.4       	150         	0.          	Open  	;
 2S164           	2PN32           	2PN44           	217.441648  	547.4       	150         	0.          	Open  	;
 2S176           	2PN44           	2PN113          	200.85026200000001	547.4       	150         	0.          	Open  	;
 2S287           	2PN113          	2PN56           	276.601865  	547.4       	150         	0.          	Open  	;
 2S188           	2PN56           	2PN88           	202.465852  	547.4       	150         	0.          	Open  	;
 2S262           	2PN88           	2PN66           	210.112137  	547.4       	150         	0.          	Open  	;
 2S240           	2PN66           	2PN73           	219.402945  	547.4       	150         	0.          	Open  	;
 2S247           	2PN73           	2PN82           	201.97431300000002	547.4       	150         	0.          	Open  	;
 2S256           	2PN82           	2MN120          	205.19374500000004	547.4       	150         	0.          	Open  	;
 2S139           	2MN120          	2MN125          	232.082724  	547.4       	150         	0.          	Open  	;
 2S144           	2MN125          	2PN45           	231.50692399999997	547.4       	150         	0.          	Open  	;
 2S177           	2PN45           	2MN131          	281.394158  	547.4       	150         	0.          	Open  	;
 2S150           	2MN131          	2MN142          	263.51696499999997	547.4       	150         	0.          	Open  	;
 2S204           	2MN142          	2MN147          	203.185313  	547.4       	150         	0.          	Open  	;
 2S209           	2MN147          	2MN157          	358.924467  	547.4       	150         	0.          	Open  	;
 2S219           	2MN157          	2MN167          	230.66933999999998	547.4       	150         	0.          	Open  	;
 2S229           	2MN167          	2MN178          	182.88519800000003	547.4       	150         	0.          	Open  	;
 3S1             	3MN1            	3MN3            	208.32503200000002	600         	140         	0.          	Open  	;
 3S3             	3MN3            	3MN5            	235.80543699999998	600         	140         	0.          	Open  	;
 3S5             	3MN5            	3MN8            	224.948742  	600         	140         	0.          	Open  	;
 3S8             	3MN8            	3MN14           	238.14061800000002	600         	140         	0.          	Open  	;
 3S14            	3MN14           	3MN18           	238.52369599999997	600         	140         	0.          	Open  	;
 3S18            	3MN18           	3MN27           	204.04226499999996	600         	140         	0.          	Open  	;
 3S27            	3MN27           	3MN36           	203.76214299999998	600         	140         	0.          	Open  	;
 3S36            	3MN36           	3PN4            	214.32649899999998	600         	140         	0.          	Open  	;
 3S639           	3PN4            	3MN42           	223.883627  	600         	140         	0.          	Open  	;
 3S42            	3MN42           	3MN46           	245.80174499999998	600         	140         	0.          	Open  	;
 3S46            	3MN46           	3MN57           	254.72623199999998	600         	140         	0.          	Open  	;
 3S57            	3MN57           	3MN66           	217.09488600000003	600         	140         	0.          	Open  	;
 3S66            	3MN66           	3MN72           	221.538812  	600         	140         	0.          	Open  	;