[TITLE]
prueba	 

[JUNCTIONS]
;ID              	Elev        	Demand      	Pattern         
 n352            	115         	9.2655208322	11              	;  
 n353            	116         	0.2977693246	11              	;  
 n354            	114         	12.4349285745	11              	;  
 n355            	115         	36.4869398388	11              	;  
 n649            	113         	5.9819001983	11              	;  
 n650            	113         	5.6351824916	11              	;  
 n664            	114         	0.0163161274	11              	;  
 n665            	114         	0.2161886877	11              	;  
 n692            	113         	0           	11              	;  
 n693            	114         	35.5752762218	11              	;  
 n696            	114         	2.4718932971	11              	;  
 n697            	114         	7.2219258787	11              	;  
 n716            	113         	3.2428303155	11              	;  
 n717            	113         	4.3135761744	11              	;  
 n1061           	114         	6.2144050134	11              	;  
 n1062           	114         	3.7567883277	11              	;  
 n1068           	114         	4.6908866199	11              	;  
 n1069           	114         	5.3027413964	11              	;  
 n1073           	117         	0.3609943181	11              	;  
 n1074           	117         	0.6014323706	11              	;  
 n1075           	114         	6.5978340066	11              	;  
 n1100           	114         	6.9425121974	11              	;  
 n1101           	113         	6.536648529 	11              	;  
 n1102           	114         	11.1275988687	11              	;  
 n1103           	115         	11.4600399639	11              	;  
 n1181           	116         	58.42       	Fix             	;  
 n1203           	121         	4.2748253718	11              	;  
 n1204           	118         	4.2748253718	11              	;  
 n1205           	118         	11.8455084731	11              	;  
 n1206           	117         	11.8455084731	11              	;  
 n1207           	116         	0.3669990554	11              	;  
 n1208           	115         	4.39        	Fix             	;  
 n1280           	117         	29.2058679984	11              	;  
 n1281           	115         	20.4257519556	11              	;  
 n1286           	115         	1.98036996  	11              	;  
 n1287           	114         	0.4201402799	11              	;  
 n1424           	114         	0.6954749293	11              	;  
 n1498           	115         	1.5283544216	11              	;  
 n1499           	115         	4.3094971425	11              	;  
 n1549           	114         	0.6126307711	11              	;  
 n1550           	113         	1.2441047122	11              	;  
 n1566           	114         	2.7941368127	11              	;  
 n1568           	115         	21.2660325153	11              	;  
 n1575           	114         	1.9521141876	11              	;  
 n1578           	114         	11.1643101553	11              	;  
 n1579           	115         	27          	11              	;  
 n1580           	114         	1.1702418843	11              	;  
 n1581           	114         	0.2569790061	11              	;  
 n1582           	114         	0.2569790061	11              	;  
 n1583           	114         	0.4123435501	11              	;  
 n1584           	114         	43.6068899214	11              	;  
 n1585           	113         	0           	11              	;  
 n1586           	113         	0.0183556433	11              	;  
 n1587           	114         	15.337159731	11              	;  
 n1588           	114         	0.9561695883	11              	;  
 n1589           	114         	2.4767851861	11              	;  
 n1590           	114         	1.3059720418	11              	;  
 n1591           	114         	1.425635165 	11              	;  
 n1592           	114         	0.9090631278	11              	;  
 n1593           	114         	1.1707902906	11              	;  
 n1594           	114         	1.9985025645	11              	;  
 n1595           	114         	1.9900978943	11              	;  
 n1596           	114         	2.0443846203	11              	;  
 n1597           	114         	0.7210898554	11              	;  
 n1598           	114         	0.4063482214	11              	;  
 n1599           	114         	1.562269196 	11              	;  
 n1600           	114         	0.3208610093	11              	;  
 n1603           	114         	4.2014027987	11              	;  
 n1675           	115         	4.4828559958	11              	;  
 n1676           	115         	2.3107715393	11              	;  
 n1689           	114         	0.2365838469	11              	;  
 n1690           	114         	0.2365838469	11              	;  
 n1742           	113         	2.0272788261	11              	;  
 n1949           	114         	7.6971330884	11              	;  
 n1950           	114         	0.728107184 	11              	;  
 n1975           	114         	43.6068899214	11              	;  
 n1976           	114         	43.6068899214	11              	;  
 n1997           	114         	0.0183556433	11              	;  
 n1998           	115         	0.964691031 	11              	;  
 n1999           	114         	0.4874443053	11              	;  
 n2035           	114         	5.4332704154	11              	;  
 n2036           	114         	45.6708800342	11              	;  
 n2037           	116         	30.6722799461	11              	;  
 n2038           	115         	1.5444014919	11              	;  
 n2089           	116         	11.8149157343	11              	;  
 n2090           	117         	0.3851854449	11              	;  
 n2199           	116         	0.9404517909	11              	;  
 n2200           	117         	0.9023832244	11              	;  
 n2201           	117         	1.5433308503	11              	;  
 n2202           	117         	1.8987942307	11              	;  
 n2203           	116         	2.6493311823	11              	;  
 n2215           	114         	2.1172495959	11              	;  
 n2216           	114         	0.2161886877	11              	;  
 n2350           	114         	27.9393286111	11              	;  
 n2351           	113         	22.8140250999	11              	;  
 n2352           	114         	5.7942647335	11              	;  
 n2353           	114         	9.7488861056	11              	;  
 n2354           	115         	3.2795416021	11              	;  
 n2358           	114         	0.416061248 	11              	;  
 n2359           	114         	0.5873805854	11              	;  
 n2360           	114         	5.286425269 	11              	;  
 n2361           	114         	6.8915242994	11              	;  
 n2362           	114         	4.7235188746	11              	;  
 n2363           	114         	5.0314857788	11              	;  
 n2364           	114         	4.609305983 	11              	;  
 n2365           	114         	19.4753375361	11              	;  
 n2366           	114         	3.8444875124	11              	;  
 n2367           	114         	10.2036981562	11              	;  
 n2368           	114         	13.5117929811	11              	;  
 n2369           	114         	13.1263244719	11              	;  
 n2370           	114         	19.4753375361	11              	;  
 n2371           	115         	10.3117925  	11              	;  
 n2372           	115         	11.6905052631	11              	;  
 n2373           	114         	1.4297006611	11              	;  
 n2374           	115         	0.4752072098	11              	;  
 n2375           	114         	8.0662854702	11              	;  
 n2376           	115         	5.7228816762	11              	;  
 n2377           	115         	5.3557688103	11              	;  
 n2378           	115         	0.0142766115	11              	;  
 n2379           	115         	1.8416828773	11              	;  
 n2380           	114         	0.2590185221	11              	;  
 n2381           	114         	2.4891287147	11              	;  
 n2382           	114         	11.4274077092	11              	;  
 n2383           	114         	12.0188673265	11              	;  
 n2408           	114         	12.7796067652	11              	;  
 n2409           	113         	6.4897396628	11              	;  
 n2410           	114         	13.7300211847	11              	;  
 n2411           	114         	12.135119734	11              	;  
 n2418           	114         	0.6791588019	11              	;  
 n2419           	114         	0.9157426488	11              	;  
 n2482           	113         	1.874315132 	11              	;  
 n2483           	114         	2.5677505454	11              	;  
 n2580           	114         	2.1455707496	11              	;  
 n2609           	114         	5.7657115106	11              	;  
 n2610           	114         	5.1436591545	11              	;  
 n2722           	114         	9.5286183861	11              	;  
 n2723           	114         	6.0390066441	11              	;  
 n2727           	114         	1.0104137237	11              	;  
 n2736           	115         	178         	11              	;  
 n2905           	114         	1.3913682284	11              	;  
 n2906           	114         	0.3548757704	11              	;  
 n2909           	114         	0.3589548022	11              	;  
 n3003           	115         	8.7617603995	11              	;  
 n3008           	114         	1.0933227913	11              	;  
 n3019           	114         	1.3256853491	11              	;  
 n3025           	116         	28.957047056	11              	;  
 n3026           	115         	0.8219249164	11              	;  
 n3031           	115         	1.7277769507	11              	;  
 n3036           	113         	0.0285532229	11              	;  
 n3037           	113         	38.8752129831	11              	;  
 n3038           	113         	6.4897396628	11              	;  
 n3039           	113         	0.5523977902	11              	;  
 n3040           	113         	172.22      	Fix             	;  
 n3041           	114         	45.6708800342	11              	;  
 n3046           	114         	2.2373489661	11              	;  
 n3281           	116         	20.572597102	11              	;  
 n3293           	114         	11.1643101553	11              	;  
 n3343           	113         	1.2441047122	11              	;  
 n3344           	114         	0           	11              	;  
 n3373           	113         	3.5181649649	11              	;  
 n3406           	113         	0.9157426488	11              	;  
 n3465           	115         	0.5955386491	11              	;  
 n3473           	113         	0.0285532229	11              	;  
 n3515           	114         	0.2954549006	11              	;  
 n3516           	114         	21          	11              	;  
 n3517           	114         	0.1086997078	11              	;  
 n3518           	113         	29          	11              	;  
 n3519           	114         	0.2161886877	11              	;  
 n3520           	114         	0.1220466222	11              	;  
 n3528           	114         	0.0183556433	11              	;  
 n3566           	113         	0.5363926874	11              	;  
 3               	117.5       	0           	ipar            	;
 n_DIP           	119.5       	0        	ipar            	;
 13              	113         	0           	                	;
 29              	113         	369         	Fix             	;
 30              	113         	0           	                	;
 14              	114         	0           	                	;
 10              	116.5       	0           	                	;
 28              	117         	0           	                	;
 34              	116         	0           	                	;
 35              	117         	0           	                	;
 24              	116         	0           	                	;

[RESERVOIRS]
;ID              	Head        	Pattern         
 r2              	145.46      	                	;
 r1              	157.87      	                	;
 r3              	161         	                	;

[TANKS]
;ID              	Elevation   	InitLevel   	MinLevel    	MaxLevel    	Diameter    	MinVol      	VolCurve        	Overflow

[PIPES]
;ID              	Node1           	Node2           	Length      	Diameter    	Roughness   	MinorLoss   	Status
 p343            	n352            	n353            	762.4       	100         	150         	0           	Open  	;  
 p344            	n354            	n355            	296.5       	100         	150         	0           	Open  	;  
 p513            	n649            	n650            	131.2       	79          	150         	0           	Open  	;  
 p514            	n650            	n649            	368.4       	79          	150         	0           	Open  	;  
 p522            	n664            	n665            	358.7       	150         	100         	0           	Open  	;  
 p539            	n692            	n693            	334.8       	300         	150         	0           	Open  	;  
 p541            	n696            	n697            	150.9       	98          	150         	0           	Open  	;  
 p551            	n716            	n717            	241.1       	100         	150         	0           	Open  	;  
 p744            	n1061           	n1062           	836.3       	98          	150         	0           	Open  	;  
 p749            	n1068           	n1069           	745.8       	98          	150         	0           	Open  	;  
 p753            	n1073           	n1074           	79.09       	98          	150         	0           	Open  	;  
 p754            	n697            	n1075           	402.9       	100         	150         	0           	Open  	;  
 p772            	n1100           	n1101           	635.9       	100         	150         	0           	Open  	;  
 p773            	n1102           	n1103           	657.3       	100         	150         	0           	Open  	;  
 p840            	n1203           	n1204           	954.31      	100         	150         	0           	Open  	;  
 p841            	n1205           	n1206           	1001        	100         	150         	0           	Open  	;  
 p842            	n1207           	n1208           	190         	100         	150         	0           	Open  	;  
 p889            	n1286           	n1287           	155.2       	98          	150         	0           	Open  	;  
 p991            	n1062           	n1424           	281.8       	98          	150         	0           	Open  	;  
 p1045           	n1498           	n1499           	320         	100         	150         	0           	Open  	;  
 p1086           	n1549           	n1550           	309.9       	98          	150         	0           	Open  	;  
 p1098           	n1566           	n354            	716.8       	98          	150         	0           	Open  	;  
 p1100           	n1286           	n1568           	127.3       	150         	100         	0           	Open  	;  
 p1104           	n1575           	n1062           	256.7       	98          	150         	0           	Open  	;  
 p1107           	n1580           	n1581           	34.6        	278         	150         	0           	Open  	;  
 p1108           	n1581           	n1582           	42.43       	300         	150         	0           	Open  	;  
 p1109           	n1583           	n1584           	121.2       	176         	150         	0           	Open  	;  
 p1110           	n1585           	n1586           	29.03       	300         	150         	0           	Open  	;  
 p1111           	n1585           	n692            	27.74       	278         	150         	0           	Open  	;  
 p1112           	n1587           	n1583           	49.31       	278         	150         	0           	Open  	;  
 p1113           	n1588           	n1589           	15.63       	278         	150         	0           	Open  	;  
 p1114           	n1590           	n1589           	80.01       	300         	150         	0           	Open  	;  
 p1116           	n1593           	n1591           	65.98       	300         	150         	0           	Open  	;  
 p1117           	n1594           	n1593           	11          	300         	101         	0           	Open  	;  
 p1118           	n1595           	n1596           	115.6       	300         	150         	0           	Open  	;  
 p1119           	n1597           	n1598           	11.47       	300         	101         	0           	Open  	;  
 p1120           	n1599           	n1597           	462.6       	300         	150         	0           	Open  	;  
 p1121           	n1600           	n1592           	186.7       	150         	100         	0           	Open  	;  
 p1124           	n1549           	n1603           	92.9        	220         	150         	0           	Open  	;  
 p1178           	n1675           	n1676           	325.4       	150         	100         	0           	Open  	;  
 p1229           	n1742           	n649            	89.42       	79          	150         	0           	Open  	;  
 p1230           	n650            	n716            	87.49       	79          	150         	0           	Open  	;  
 p1441           	n1949           	n1950           	204.3       	98          	150         	0           	Open  	;  
 p1458           	n1975           	n1976           	512.9       	141         	150         	0           	Open  	;  
 p1475           	n1997           	n1586           	1445        	150         	100         	0           	Open  	;  
 p1476           	n1998           	n1999           	302.3       	150         	100         	0           	Open  	;  
 p1477           	n1998           	n1676           	128.4       	141         	150         	0           	Open  	;  
 p1502           	n2035           	n2036           	129.5       	98          	150         	0           	Open  	;  
 p1503           	n2037           	n2038           	203.1       	98          	150         	0           	Open  	;  
 p1546           	n1280           	n2089           	495.2       	100         	101         	0           	Open  	;  
 p1547           	n2089           	n1281           	569.2       	80          	101         	0           	Open  	;  
 p1648           	n2199           	n1207           	51.3        	98          	150         	0           	Open  	;  
 p1649           	n2200           	n2199           	567         	100         	150         	0           	Open  	;  
 p1650           	n2200           	n2201           	26.31       	98          	150         	0           	Open  	;  
 p1652           	n1204           	n1205           	19.6        	98          	150         	0           	Open  	;  
 p1662           	n1594           	n2215           	120.4       	300         	150         	0           	Open  	;  
 p1663           	n1598           	n1595           	15.25       	278         	150         	0           	Open  	;  
 p1664           	n1599           	n2216           	19.87       	278         	150         	0           	Open  	;  
 p1773           	n2350           	n2351           	1274        	100         	150         	0           	Open  	;  
 p1774           	n2352           	n1068           	138.7       	100         	150         	0           	Open  	;  
 p1775           	n2353           	n1102           	95.54       	150         	100         	0           	Open  	;  
 p1776           	n1061           	n2354           	249.9       	100         	150         	0           	Open  	;  
 p1780           	n2358           	n2359           	123.1       	300         	150         	0           	Open  	;  
 p1781           	n2360           	n2361           	110.3       	100         	150         	0           	Open  	;  
 p1782           	n2362           	n2361           	77.08       	100         	150         	0           	Open  	;  
 p1783           	n2363           	n2352           	482.4       	100         	150         	0           	Open  	;  
 p1784           	n2364           	n2362           	473.2       	100         	150         	0           	Open  	;  
 p1785           	n2361           	n2365           	465.4       	100         	150         	0           	Open  	;  
 p1786           	n696            	n2366           	86.65       	100         	150         	0           	Open  	;  
 p1787           	n2367           	n2368           	644.8       	100         	150         	0           	Open  	;  
 p1788           	n2369           	n2370           	648.7       	100         	150         	0           	Open  	;  
 p1789           	n2353           	n2371           	663.4       	100         	150         	0           	Open  	;  
 p1790           	n1949           	n2372           	464.9       	100         	150         	0           	Open  	;  
 p1791           	n2373           	n2374           	124.5       	100         	150         	0           	Open  	;  
 p1792           	n2375           	n352            	506.5       	100         	150         	0           	Open  	;  
 p1793           	n2376           	n2377           	506.7       	150         	100         	0           	Open  	;  
 p1794           	n353            	n2377           	852.8       	200         	150         	0           	Open  	;  
 p1795           	n2378           	n2379           	391.8       	100         	150         	0           	Open  	;  
 p1796           	n2380           	n2381           	327.3       	100         	150         	0           	Open  	;  
 p1797           	n2382           	n2383           	600.3       	100         	150         	0           	Open  	;  
 p1826           	n2408           	n2409           	818.18      	300         	101         	0           	Open  	;  
 p1827           	n2410           	n2411           	652         	100         	150         	0           	Open  	;  
 p1836           	n2418           	n2419           	188.7       	300         	150         	0           	Open  	;  
 p1889           	n2482           	n2483           	308.4       	100         	150         	0           	Open  	;  
 p1969           	n2580           	n2483           	215.8       	100         	150         	0           	Open  	;  
 p2001           	n2609           	n2610           	191.5       	80          	101         	0           	Open  	;  
 p2002           	n2609           	n2035           	103.3       	80          	101         	0           	Open  	;  
 p2106           	n2351           	n2409           	134.26      	80          	101         	0           	Open  	;  
 p2110           	n2722           	n354            	348.3       	100         	150         	0           	Open  	;  
 p2111           	n2610           	n2723           	184.3       	100         	101         	0           	Open  	;  
 p2117           	n1999           	n2727           	388.3       	141         	150         	0           	Open  	;  
 p2131           	n1579           	n2736           	206.7       	176         	150         	0           	Open  	;  
 p2301           	n693            	n1587           	115         	300         	150         	0           	Open  	;  
 p2302           	n1592           	n2905           	78.56       	150         	100         	0           	Open  	;  
 p2306           	n2419           	n1690           	67.88       	300         	150         	0           	Open  	;  
 p2307           	n1689           	n2909           	65.03       	150         	100         	0           	Open  	;  
 p2309           	n2909           	n2360           	75.11       	150         	100         	0           	Open  	;  
 p2310           	n2375           	n2373           	93.26       	150         	100         	0           	Open  	;  
 p2457           	n1206           	n2201           	75.16       	100         	150         	0           	Open  	;  
 1_valt          	n1675           	n2203           	461.2       	100         	101         	0           	Open  	;  
 Kivaltott2      	n2089           	n3003           	91.12       	173         	100         	0           	Open  	;  
 p2479           	n2727           	n1997           	276         	150         	100         	0           	Open  	;  
 p2483           	n3008           	n692            	69.48       	300         	150         	0           	Open  	;  
 p2503           	n665            	n2906           	309.1       	150         	100         	0           	Open  	;  
 p2520           	n2360           	n1603           	335.8       	300         	101         	0           	Open  	;  
 p2521           	n2366           	n3019           	102.4       	150         	100         	0           	Open  	;  
 p2522           	n2368           	n2366           	90.12       	150         	100         	0           	Open  	;  
 p2523           	n1603           	n3019           	178.8       	300         	101         	0           	Open  	;  
 p2524           	n2365           	n2368           	95.68       	150         	100         	0           	Open  	;  
 p2525           	n2364           	n2411           	63          	150         	100         	0           	Open  	;  
 p2526           	n2363           	n2353           	25.39       	150         	100         	0           	Open  	;  
 p2527           	n3019           	n2350           	49.87       	300         	101         	0           	Open  	;  
 p2528           	n1069           	n1950           	186.3       	150         	100         	0           	Open  	;  
 p2529           	n2376           	n2354           	4.484       	150         	100         	0           	Open  	;  
 p2530           	n2376           	n1286           	120.4       	150         	100         	0           	Open  	;  
 p2531           	n2354           	n2375           	82.25       	150         	100         	0           	Open  	;  
 p2533           	n2373           	n1069           	53.98       	150         	100         	0           	Open  	;  
 p2545           	n2350           	n2408           	589.8       	300         	101         	0           	Open  	;  
 p2546           	n1075           	n2408           	172.2       	200         	150         	0           	Open  	;  
 p2547           	n1100           	n1075           	11.87       	200         	150         	0           	Open  	;  
 p2549           	n2367           	n1100           	104.7       	200         	150         	0           	Open  	;  
 p2550           	n352            	n2379           	108.1       	200         	150         	0           	Open  	;  
 p2551           	n2383           	n2367           	86.27       	200         	150         	0           	Open  	;  
 p2552           	n2369           	n2383           	34.18       	200         	150         	0           	Open  	;  
 p2553           	n2410           	n2369           	117.9       	200         	150         	0           	Open  	;  
 p2554           	n3025           	n353            	118.6       	200         	150         	0           	Open  	;  
 p2555           	n1103           	n2410           	121.8       	200         	150         	0           	Open  	;  
 p2556           	n3026           	n1103           	7.543       	200         	150         	0           	Open  	;  
 p2557           	n2371           	n3026           	111.5       	200         	150         	0           	Open  	;  
 p2558           	n2372           	n1499           	111.7       	200         	150         	0           	Open  	;  
 p2559           	n2379           	n2372           	79.03       	200         	150         	0           	Open  	;  
 p2571           	n3026           	n2380           	323.9       	100         	150         	0           	Open  	;  
 p2573           	n3031           	n1498           	227.2       	100         	150         	0           	Open  	;  
 p2601           	n3037           	n3038           	6.151       	300         	101         	0           	Open  	;  
 p2607           	n3039           	n3040           	37.83       	600         	101         	0           	Open  	;  
 p2608           	n3041           	n3037           	623.8       	300         	101         	0           	Open  	;  
 p2610           	n355            	n3041           	380.9       	300         	101         	0           	Open  	;  
 p2611           	n3025           	n355            	175.6       	300         	101         	0           	Open  	;  
 p2617           	n3046           	n2610           	173.4       	100         	101         	0           	Open  	;  
 p2622           	n2723           	n2722           	174         	100         	101         	0           	Open  	;  
 p2629           	n2483           	n2722           	17.42       	100         	150         	0           	Open  	;  
 p2631           	n1742           	n716            	137.1       	100         	150         	0           	Open  	;  
 p2635           	n2482           	n1742           	44.9        	100         	150         	0           	Open  	;  
 p3435           	n2609           	n717            	184.6       	80          	101         	0           	Open  	;  
 p3445           	n1181           	n3281           	2.136       	300         	101         	0           	Open  	;  
 p3447           	n2037           	n3025           	19.35       	300         	101         	0           	Open  	;  
 p3464           	n1499           	n2371           	3.155       	200         	150         	0           	Open  	;  
 p3465           	n2377           	n352            	92.58       	200         	150         	0           	Open  	;  
 p3469           	n1950           	n2363           	67.78       	150         	100         	0           	Open  	;  
 p3470           	n1102           	n2364           	28.75       	150         	100         	0           	Open  	;  